data_abc
_audit_creation_date              20XX-XX-XX
_audit_creation_method            'OpenMX Viewer'
_symmetry_space_group_name_H-M    'P1'
_symmetry_Int_Tables_number       1
_symmetry_cell_setting            triclinic
loop_
_symmetry_equiv_pos_as_xyz
  x,y,z
_cell_length_a                    4.4181
_cell_length_b                    4.4181
_cell_length_c                    32.2573
_cell_angle_alpha                 90.0000
_cell_angle_beta                  90.0000
_cell_angle_gamma                 120.0000
loop_
_atom_site_label
_atom_site_type_symbol
_atom_site_fract_x
_atom_site_fract_y
_atom_site_fract_z
_atom_site_Uiso_or_equiv
_atom_site_adp_type
_atom_site_occupancy
A1     Bi    0.50000   0.83333   0.30317   0.00000  Uiso   1.00
A2     Bi    0.50000   0.83333   0.09683   0.00000  Uiso   1.00
A3     Bi    0.16667   0.16667   0.63650   0.00000  Uiso   1.00
A4     Bi    0.16667   0.16667   0.43016   0.00000  Uiso   1.00
A5     Bi    0.83333   0.50000   0.96984   0.00000  Uiso   1.00
A6     Bi    0.83333   0.50000   0.76350   0.00000  Uiso   1.00
A7     Te    0.83333   0.50000   0.14986   0.00000  Uiso   1.00
A8     Te    0.16667   0.16667   0.03333   0.00000  Uiso   1.00
A9     Te    0.16667   0.16667   0.25014   0.00000  Uiso   1.00
A10    Te    0.50000   0.83333   0.48319   0.00000  Uiso   1.00
A11    Te    0.83333   0.50000   0.36667   0.00000  Uiso   1.00
A12    Te    0.83333   0.50000   0.58347   0.00000  Uiso   1.00
A13    Te    0.16667   0.16667   0.81653   0.00000  Uiso   1.00
A14    Te    0.50000   0.83333   0.70000   0.00000  Uiso   1.00
A15    Te    0.50000   0.83333   0.91681   0.00000  Uiso   1.00
