data_abc
_audit_creation_date              20XX-XX-XX
_audit_creation_method            'OpenMX Viewer'
_symmetry_space_group_name_H-M    'P1'
_symmetry_Int_Tables_number       1
_symmetry_cell_setting            triclinic
loop_
_symmetry_equiv_pos_as_xyz
  x,y,z
_cell_length_a                    10.4500
_cell_length_b                    10.4500
_cell_length_c                    10.4500
_cell_angle_alpha                 24.1300
_cell_angle_beta                  24.1300
_cell_angle_gamma                 24.1300
loop_
_atom_site_label
_atom_site_type_symbol
_atom_site_fract_x
_atom_site_fract_y
_atom_site_fract_z
_atom_site_Uiso_or_equiv
_atom_site_adp_type
_atom_site_occupancy
A1     Bi    0.39900   0.39900   0.39900   0.00000  Uiso   1.00
A2     Bi    0.60100   0.60100   0.60100   0.00000  Uiso   1.00
A3     Te    0.00000   0.00000   0.00000   0.00000  Uiso   1.00
A4     Te    0.79200   0.79200   0.79200   0.00000  Uiso   1.00
A5     Te    0.20800   0.20800   0.20800   0.00000  Uiso   1.00
